17
XYZ file generated from dataset
O -0.02239999920129776 1.3889000415802002 -0.03240000084042549
C 0.010400000028312206 0.0038999998942017555 -0.00430000014603138
C -0.3806999921798706 -0.7433000206947327 1.2388999462127686
C -1.3011000156402588 -0.7930999994277954 0.025499999523162842
O -2.5648999214172363 -0.25760000944137573 0.11710000038146973
C -1.11899995803833 -1.9151999950408936 -0.9325000047683716
